// Simple test file to check for memory leaks
clock {
    timezone PST+8PDT;
    starttime '2020-01-01 00:00:00';
    stoptime '2020-01-01 01:00:00';
}

module tape;
module powerflow;
module residential;

object metrics_collector_writer {
    interval 60;
    filename "metrics_output";
}

object metrics_collector {
    interval 60;
}

object recorder {
    property "some_property";
    file "test_output.csv";
    interval 60;
}
